12
A beautiful flower of waters
C   0.   0.   0.1178
C   0.   0.7555   -0.4712
C   0.   -0.7555   -0.4712
C   0.   0.3822   0.5
C   0.   0.9712   1.2555
C   0.   0.9712   -0.2555
C   0.   -0.0000   0.8822
C   0.   -0.7555   1.4712
C   0.   0.7555   1.4712
C   0.   -0.3822   0.5
C   0.   -0.9712   -0.2555
C   0.   -0.9712   1.2555
